/*--------------------------------*- C++ -*----------------------------------*\
| =========                 |                                                 |
| \\      /  F ield         | OpenFOAM: The Open Source CFD Toolbox           |
|  \\    /   O peration     | Version:  2.3.0                                 |
|   \\  /    A nd           | Web:      www.OpenFOAM.org                      |
|    \\/     M anipulation  |                                                 |
\*---------------------------------------------------------------------------*/
FoamFile
{
    version     2.0;
    format      ascii;
    class       dictionary;
    object      blockMeshDict;
}
// * * * * * * * * * * * * * * * * * * * * * * * * * * * * * * * * * * * * * //
convertToMeters 1;
vertices
(
    (-100 0 -100)
    (200 0 -100)
    (200 100 -100)
    (-100 100 -100)
    (-100 0 100)
    (200 0 100)
    (200 100 100)
    (-100 100 100)

);
blocks
(
);
edges
(
);
boundary
(
);
mergePatchPairs
(
);
hex (0 1 2 3 4 5 6 7) (20 50 20) simpleGrading (1 1 1);
// ************************************************************************* //